# $Header: /u/gcmpack/MITgcm/verification/lab_sea/input/data.exf,v 1.7 2004/07/11 06:21:44 dimitri Exp $
#
# *********************
# External Forcing Data
# *********************
 &EXF_NML_01
 useExfYearlyFields = .TRUE., 
 useExfCheckRange   = .FALSE.,
 exf_iprec          = 32,
 exf_yftype         = 'RL',
 &
#
 &EXF_NML_02
#
 atempstartdate1   = 20090101,
 atempstartdate2   = 00000,
 atempperiod       = 21600.0,
#
 aqhstartdate1     = 20090101,
 aqhstartdate2     = 00000,
 aqhperiod         = 21600.0,
#
 precipstartdate1  = 20090101,
 precipstartdate2  = 00000,
 precipperiod      = 21600.0,
#
 uwindstartdate1   = 20090101,
 uwindstartdate2   = 00000,
 uwindperiod       = 21600.0,
#
 vwindstartdate1   = 20090101,
 vwindstartdate2   = 00000,
 vwindperiod       = 21600.0,
#
 runoffstartdate1 = 20090101,
 runoffstartdate2 = 060000, 
 runoffperiod = -12,
#   
 swdownstartdate1  = 20090101,
 swdownstartdate2  = 00000,
 swdownperiod      = 21600.0,
#
 lwdownstartdate1  = 20090101,
 lwdownstartdate2  = 00000,
 lwdownperiod      = 21600.0,
#
#
 precipfile = 'ncep_prate_6h',
 atempfile  = 'ncep_air_6h',
 aqhfile    = 'ncep_shum_6h',
 swdownfile = 'ncep_dswrf_6h',
 swfluxfile = '',
 lwfluxfile = '',
 lwdownfile = 'ncep_dlwrf_6h',
 uwindfile  = 'ncep_uwnd_6h',
 vwindfile  = 'ncep_vwnd_6h',
 runofffile = 'run-off.bin_1x1',
#
 &
 &EXF_NML_03
 exf_inscal_precip = 9.8039e-04,
 exf_inscal_runoff  = 3.1710e-08,
 exf_offset_atemp = 0.0,
 &
#
 &EXF_NML_04
#
 atemp_lon0        = 0.00D0,
 atemp_lon_inc     = 1.875D0,
 atemp_lat0        = -88.5420D0,
 atemp_lat_inc    = 1.8888, 1.9000, 1.9024, 1.9034, 1.9039, 1.9042,
    1.9042, 1.9044, 1.9045, 1.9045, 1.9046, 1.9046, 1.9046, 1.9046,
    1.9047, 1.9046, 1.9047, 1.9047, 1.9047, 1.9047, 1.9047, 1.9047,
    1.9047, 1.9047, 1.9047, 1.9047, 1.9048, 1.9047, 1.9047, 1.9047,
    1.9047, 1.9048, 1.9047, 1.9047, 1.9048, 1.9047, 1.9047, 1.9048,
    1.9047, 1.9047, 1.9048, 1.9047, 1.9047, 1.9048, 1.9047, 1.9047,
    1.9048, 1.9047, 1.9047, 1.9048, 1.9047, 1.9047, 1.9048, 1.9047,
    1.9047, 1.9048, 1.9047, 1.9047, 1.9048, 1.9047, 1.9047, 1.9048,
    1.9047, 1.9047, 1.9047, 1.9047, 1.9048, 1.9047, 1.9047, 1.9047,
    1.9047, 1.9047, 1.9047, 1.9047, 1.9047, 1.9047, 1.9047, 1.9046,
    1.9047, 1.9046, 1.9046, 1.9046, 1.9046, 1.9045, 1.9045, 1.9044,
    1.9042, 1.9042, 1.9039, 1.9034, 1.9024, 1.9000, 1.8888, 1.8888,
 atemp_nlon        = 192,
 atemp_nlat        = 94,
#
 aqh_lon0        = 0.00D0,
 aqh_lon_inc     = 1.875D0,
 aqh_lat0        = -88.5420D0,
 aqh_lat_inc    = 1.8888, 1.9000, 1.9024, 1.9034, 1.9039, 1.9042,
    1.9042, 1.9044, 1.9045, 1.9045, 1.9046, 1.9046, 1.9046, 1.9046,
    1.9047, 1.9046, 1.9047, 1.9047, 1.9047, 1.9047, 1.9047, 1.9047,
    1.9047, 1.9047, 1.9047, 1.9047, 1.9048, 1.9047, 1.9047, 1.9047,
    1.9047, 1.9048, 1.9047, 1.9047, 1.9048, 1.9047, 1.9047, 1.9048,
    1.9047, 1.9047, 1.9048, 1.9047, 1.9047, 1.9048, 1.9047, 1.9047,
    1.9048, 1.9047, 1.9047, 1.9048, 1.9047, 1.9047, 1.9048, 1.9047,
    1.9047, 1.9048, 1.9047, 1.9047, 1.9048, 1.9047, 1.9047, 1.9048,
    1.9047, 1.9047, 1.9047, 1.9047, 1.9048, 1.9047, 1.9047, 1.9047,
    1.9047, 1.9047, 1.9047, 1.9047, 1.9047, 1.9047, 1.9047, 1.9046,
    1.9047, 1.9046, 1.9046, 1.9046, 1.9046, 1.9045, 1.9045, 1.9044,
    1.9042, 1.9042, 1.9039, 1.9034, 1.9024, 1.9000, 1.8888, 1.8888,
 aqh_nlon        = 192,
 aqh_nlat        = 94,
#
 precip_lon0        = 0.00D0,
 precip_lon_inc     = 1.875D0,
 precip_lat0        = -88.5420D0,
 precip_lat_inc    = 1.8888, 1.9000, 1.9024, 1.9034, 1.9039, 1.9042,
    1.9042, 1.9044, 1.9045, 1.9045, 1.9046, 1.9046, 1.9046, 1.9046,
    1.9047, 1.9046, 1.9047, 1.9047, 1.9047, 1.9047, 1.9047, 1.9047,
    1.9047, 1.9047, 1.9047, 1.9047, 1.9048, 1.9047, 1.9047, 1.9047,
    1.9047, 1.9048, 1.9047, 1.9047, 1.9048, 1.9047, 1.9047, 1.9048,
    1.9047, 1.9047, 1.9048, 1.9047, 1.9047, 1.9048, 1.9047, 1.9047,
    1.9048, 1.9047, 1.9047, 1.9048, 1.9047, 1.9047, 1.9048, 1.9047,
    1.9047, 1.9048, 1.9047, 1.9047, 1.9048, 1.9047, 1.9047, 1.9048,
    1.9047, 1.9047, 1.9047, 1.9047, 1.9048, 1.9047, 1.9047, 1.9047,
    1.9047, 1.9047, 1.9047, 1.9047, 1.9047, 1.9047, 1.9047, 1.9046,
    1.9047, 1.9046, 1.9046, 1.9046, 1.9046, 1.9045, 1.9045, 1.9044,
    1.9042, 1.9042, 1.9039, 1.9034, 1.9024, 1.9000, 1.8888, 1.8888,
 precip_nlon        = 192,
 precip_nlat        = 94,
#
 uwind_lon0        = 0.00D0,
 uwind_lon_inc     = 1.875D0,
 uwind_lat0        = -88.5420D0,
 uwind_lat_inc    = 1.8888, 1.9000, 1.9024, 1.9034, 1.9039, 1.9042,
    1.9042, 1.9044, 1.9045, 1.9045, 1.9046, 1.9046, 1.9046, 1.9046,
    1.9047, 1.9046, 1.9047, 1.9047, 1.9047, 1.9047, 1.9047, 1.9047,
    1.9047, 1.9047, 1.9047, 1.9047, 1.9048, 1.9047, 1.9047, 1.9047,
    1.9047, 1.9048, 1.9047, 1.9047, 1.9048, 1.9047, 1.9047, 1.9048,
    1.9047, 1.9047, 1.9048, 1.9047, 1.9047, 1.9048, 1.9047, 1.9047,
    1.9048, 1.9047, 1.9047, 1.9048, 1.9047, 1.9047, 1.9048, 1.9047,
    1.9047, 1.9048, 1.9047, 1.9047, 1.9048, 1.9047, 1.9047, 1.9048,
    1.9047, 1.9047, 1.9047, 1.9047, 1.9048, 1.9047, 1.9047, 1.9047,
    1.9047, 1.9047, 1.9047, 1.9047, 1.9047, 1.9047, 1.9047, 1.9046,
    1.9047, 1.9046, 1.9046, 1.9046, 1.9046, 1.9045, 1.9045, 1.9044,
    1.9042, 1.9042, 1.9039, 1.9034, 1.9024, 1.9000, 1.8888, 1.8888,
 uwind_nlon        = 192,
 uwind_nlat        = 94,
#
 vwind_lon0        = 0.00D0,
 vwind_lon_inc     = 1.875D0,
 vwind_lat0        = -88.5420D0,
 vwind_lat_inc    = 1.8888, 1.9000, 1.9024, 1.9034, 1.9039, 1.9042,
    1.9042, 1.9044, 1.9045, 1.9045, 1.9046, 1.9046, 1.9046, 1.9046,
    1.9047, 1.9046, 1.9047, 1.9047, 1.9047, 1.9047, 1.9047, 1.9047,
    1.9047, 1.9047, 1.9047, 1.9047, 1.9048, 1.9047, 1.9047, 1.9047,
    1.9047, 1.9048, 1.9047, 1.9047, 1.9048, 1.9047, 1.9047, 1.9048,
    1.9047, 1.9047, 1.9048, 1.9047, 1.9047, 1.9048, 1.9047, 1.9047,
    1.9048, 1.9047, 1.9047, 1.9048, 1.9047, 1.9047, 1.9048, 1.9047,
    1.9047, 1.9048, 1.9047, 1.9047, 1.9048, 1.9047, 1.9047, 1.9048,
    1.9047, 1.9047, 1.9047, 1.9047, 1.9048, 1.9047, 1.9047, 1.9047,
    1.9047, 1.9047, 1.9047, 1.9047, 1.9047, 1.9047, 1.9047, 1.9046,
    1.9047, 1.9046, 1.9046, 1.9046, 1.9046, 1.9045, 1.9045, 1.9044,
    1.9042, 1.9042, 1.9039, 1.9034, 1.9024, 1.9000, 1.8888, 1.8888,
 vwind_nlon        = 192,
 vwind_nlat        = 94,
#
 swdown_lon0        = 0.00D0,
 swdown_lon_inc     = 1.875D0,
 swdown_lat0        = -88.5420D0,
 swdown_lat_inc    = 1.8888, 1.9000, 1.9024, 1.9034, 1.9039, 1.9042,
    1.9042, 1.9044, 1.9045, 1.9045, 1.9046, 1.9046, 1.9046, 1.9046,
    1.9047, 1.9046, 1.9047, 1.9047, 1.9047, 1.9047, 1.9047, 1.9047,
    1.9047, 1.9047, 1.9047, 1.9047, 1.9048, 1.9047, 1.9047, 1.9047,
    1.9047, 1.9048, 1.9047, 1.9047, 1.9048, 1.9047, 1.9047, 1.9048,
    1.9047, 1.9047, 1.9048, 1.9047, 1.9047, 1.9048, 1.9047, 1.9047,
    1.9048, 1.9047, 1.9047, 1.9048, 1.9047, 1.9047, 1.9048, 1.9047,
    1.9047, 1.9048, 1.9047, 1.9047, 1.9048, 1.9047, 1.9047, 1.9048,
    1.9047, 1.9047, 1.9047, 1.9047, 1.9048, 1.9047, 1.9047, 1.9047,
    1.9047, 1.9047, 1.9047, 1.9047, 1.9047, 1.9047, 1.9047, 1.9046,
    1.9047, 1.9046, 1.9046, 1.9046, 1.9046, 1.9045, 1.9045, 1.9044,
    1.9042, 1.9042, 1.9039, 1.9034, 1.9024, 1.9000, 1.8888, 1.8888,
 swdown_nlon        = 192,
 swdown_nlat        = 94,
#
 lwdown_lon0        = 0.00D0,
 lwdown_lon_inc     = 1.875D0,
 lwdown_lat0        = -88.5420D0,
 lwdown_lat_inc    = 1.8888, 1.9000, 1.9024, 1.9034, 1.9039, 1.9042,
    1.9042, 1.9044, 1.9045, 1.9045, 1.9046, 1.9046, 1.9046, 1.9046,
    1.9047, 1.9046, 1.9047, 1.9047, 1.9047, 1.9047, 1.9047, 1.9047,
    1.9047, 1.9047, 1.9047, 1.9047, 1.9048, 1.9047, 1.9047, 1.9047,
    1.9047, 1.9048, 1.9047, 1.9047, 1.9048, 1.9047, 1.9047, 1.9048,
    1.9047, 1.9047, 1.9048, 1.9047, 1.9047, 1.9048, 1.9047, 1.9047,
    1.9048, 1.9047, 1.9047, 1.9048, 1.9047, 1.9047, 1.9048, 1.9047,
    1.9047, 1.9048, 1.9047, 1.9047, 1.9048, 1.9047, 1.9047, 1.9048,
    1.9047, 1.9047, 1.9047, 1.9047, 1.9048, 1.9047, 1.9047, 1.9047,
    1.9047, 1.9047, 1.9047, 1.9047, 1.9047, 1.9047, 1.9047, 1.9046,
    1.9047, 1.9046, 1.9046, 1.9046, 1.9046, 1.9045, 1.9045, 1.9044,
    1.9042, 1.9042, 1.9039, 1.9034, 1.9024, 1.9000, 1.8888, 1.8888,
 lwdown_nlon        = 192,
 lwdown_nlat        = 94,
#
 runoff_lon0        = 0.50D0,
 runoff_lon_inc     = 1.0D0,
 runoff_lat0        = -79.5D0,
 runoff_lat_inc     = 160*1.0D0,
 runoff_nlon        = 360,
 runoff_nlat        = 160,
#
 &
#
 &EXF_NML_OBCS
#
 obcsNstartdate1     = 20090101,
 obcsNstartdate2     = 00000,
 obcsNperiod         = 604800.0,
#
 obcsSstartdate1     = 20090101,
 obcsSstartdate2     = 00000,
 obcsSperiod         = 604800.0,
#
 obcsWstartdate1     = 20090101,
 obcsWstartdate2     = 00000,
 obcsWperiod         = 604800.0,
#
 &
