#
# *******************
# Calendar Parameters
# *******************
 &CAL_NML
 TheCalendar = 'gregorian',
 startDate_1 = 20090101,
 startDate_2 = 000000,
 &
